  101 'GENROE' 1   8.000000  0.030000  0.400000  0.050000  6.500000  0.000000  1.800000
  1.700000  0.300000  0.550000  0.250000  0.200000  0.039200  0.267200  /
  101 'ESST1A' 1   1  1  0.01  99  -99  1  10  1  1  200  0  4  -4  4  -4  0  0  1  0  3  /
  102 'GENCLS' 1   0.0   0.0 /
  103 'GENCLS' 1   3.1   2.0 /